/*--------------------------------*- C++ -*----------------------------------*\
| =========                 |                                                 |
| \\      /  F ield         | OpenFOAM: The Open Source CFD Toolbox           |
|  \\    /   O peration     | Version:  v2106                                 |
|   \\  /    A nd           | Website:  www.openfoam.com                      |
|    \\/     M anipulation  |                                                 |
\*---------------------------------------------------------------------------*/
FoamFile
{
    version     2.0;
    format      ascii;
    class       dictionary;
    object      chemistryProperties;
}
// * * * * * * * * * * * * * * * * * * * * * * * * * * * * * * * * * * * * * //

chemistryType
{
    chemistrySolver  ode;
    chemistryThermo  psi;
    TDAC             off;
}

chemistry            on;

importantSpecies
{
    C2H2;
    C4H2;
    C4H4;
    CH4;
    H2;
}

initialChemicalTimeStep 1.0e-07;

odeCoeffs
{
    solver          seulex;
    absTol          1.0e-12;
    relTol          1.0e-03;
}


// ************************************************************************* //
