// -*- C++ -*-
// File generated by PyFoam - sorry for the ugliness

FoamFile
{
 version 2.0;
 format ascii;
 arch "LSB;label=32;scalar=64";
 class polyBoundaryMesh;
 location "constant/polyMesh";
 object boundary;
}

(
  outlet

  {
    type patch;
    physicalType patch;
    nFaces 28;
    startFace 6572;

  }
  inlet

  {
    type patch;
    physicalType patch;
    nFaces 28;
    startFace 6600;

  }
  front

  {
    type wedge;
    physicalType patch;
    nFaces 3360;
    startFace 6628;

  }
  wall

  {
    type patch;
    physicalType patch;
    nFaces 120;
    startFace 9988;

  }
  back

  {
    type wedge;
    physicalType patch;
    nFaces 3360;
    startFace 10108;

  }
)


// ************************************************************************* //