/*--------------------------------*- C++ -*----------------------------------*\
| =========                 |                                                 |
| \\      /  F ield         | OpenFOAM: The Open Source CFD Toolbox           |
|  \\    /   O peration     | Version:  v2106                                 |
|   \\  /    A nd           | Website:  www.openfoam.com                      |
|    \\/     M anipulation  |                                                 |
\*---------------------------------------------------------------------------*/
FoamFile
{
    version     2.0;
    format      ascii;
    class       dictionary;
    object      controlDict;
}
// * * * * * * * * * * * * * * * * * * * * * * * * * * * * * * * * * * * * * //

application       reactingFoam;

startFrom         latestTime;

startTime         0;

stopAt            endTime;

endTime           150.0;

deltaT            1.0e-05;

writeControl      runTime;

writeInterval     10;

purgeWrite        0;

writeFormat       ascii;

writePrecision    6;

writeCompression  off;

timeFormat        fixed;

timePrecision     5;

runTimeModifiable true;

maxCo             0.25;

adjustTimeStep    yes;


// ************************************************************************* //
